LTspice 24.1.9 for Windows
Circuit: C:\Users\home\OneDrive\Documents\LTspice\Draft2.net
Start Time: Sun Aug 17 19:53:07 2025
solver = Normal
Maximum thread count: 8
tnom = 27
temp = 27
method = trap
.OP point found by inspection.
Total elapsed time: 0.360 seconds.

Files loaded:
C:\Users\home\OneDrive\Documents\LTspice\Draft2.net

